Test_Network/network_5/Lines.txt
New Line.LINE11 Bus1=11 Bus2=12 phases=3 Linecode=5c_.06 Length=0.25109 Units=m
New Line.LINE12 Bus1=12 Bus2=13 phases=3 Linecode=5c_.06 Length=0.048466 Units=m
New Line.LINE13 Bus1=13 Bus2=14 phases=3 Linecode=5c_.06 Length=0.054999 Units=m
New Line.LINE14 Bus1=14 Bus2=15 phases=3 Linecode=5c_.06 Length=0.048167 Units=m
New Line.LINE15 Bus1=15 Bus2=16 phases=3 Linecode=5c_.06 Length=0.046141 Units=m
New Line.LINE16 Bus1=16 Bus2=17 phases=3 Linecode=5c_.06 Length=0.043463 Units=m
New Line.LINE17 Bus1=17 Bus2=18 phases=3 Linecode=5c_.06 Length=0.061659 Units=m
New Line.LINE18 Bus1=18 Bus2=19 phases=3 Linecode=5c_.06 Length=0.030017 Units=m
New Line.LINE19 Bus1=19 Bus2=110 phases=3 Linecode=5c_.06 Length=0.036223 Units=m
New Line.LINE110 Bus1=110 Bus2=111 phases=3 Linecode=5c_.06 Length=3.3729 Units=m
New Line.LINE111 Bus1=111 Bus2=112 phases=3 Linecode=5c_.06 Length=0.090378 Units=m
New Line.LINE112 Bus1=112 Bus2=113 phases=3 Linecode=5c_.06 Length=0.08071 Units=m
New Line.LINE113 Bus1=113 Bus2=114 phases=3 Linecode=5c_.06 Length=0.082806 Units=m
New Line.LINE114 Bus1=114 Bus2=115 phases=3 Linecode=5c_.06 Length=0.49759 Units=m
New Line.LINE115 Bus1=115 Bus2=116 phases=3 Linecode=5c_.06 Length=2.7717 Units=m
New Line.LINE116 Bus1=116 Bus2=117 phases=3 Linecode=5c_.06 Length=2.2246 Units=m
New Line.LINE117 Bus1=117 Bus2=118 phases=3 Linecode=5c_.06 Length=2.5079 Units=m
New Line.LINE118 Bus1=118 Bus2=119 phases=3 Linecode=5c_.06 Length=1.1208 Units=m
New Line.LINE119 Bus1=119 Bus2=120 phases=3 Linecode=5c_.06 Length=9.9483 Units=m
New Line.LINE120 Bus1=120 Bus2=121 phases=3 Linecode=5c_.06 Length=0.60681 Units=m
New Line.LINE121 Bus1=121 Bus2=122 phases=3 Linecode=5c_.06 Length=0.37184 Units=m
New Line.LINE122 Bus1=122 Bus2=123 phases=3 Linecode=5c_.06 Length=0.52667 Units=m
New Line.LINE123 Bus1=123 Bus2=124 phases=3 Linecode=5c_.06 Length=0.077877 Units=m
New Line.LINE124 Bus1=124 Bus2=125 phases=3 Linecode=5c_.06 Length=0.1005 Units=m
New Line.LINE125 Bus1=125 Bus2=126 phases=3 Linecode=5c_.06 Length=0.13665 Units=m
New Line.LINE126 Bus1=126 Bus2=127 phases=3 Linecode=5c_.06 Length=0.17021 Units=m
New Line.LINE127 Bus1=127 Bus2=128 phases=3 Linecode=5c_.06 Length=0.09586 Units=m
New Line.LINE128 Bus1=128 Bus2=129 phases=3 Linecode=5c_.06 Length=0.073825 Units=m
New Line.LINE129 Bus1=129 Bus2=130 phases=3 Linecode=5c_.06 Length=0.11507 Units=m
New Line.LINE130 Bus1=130 Bus2=131 phases=3 Linecode=5c_.06 Length=0.28185 Units=m
New Line.LINE131 Bus1=131 Bus2=132 phases=3 Linecode=5c_.06 Length=0.59096 Units=m
New Line.LINE132 Bus1=132 Bus2=133 phases=3 Linecode=5c_.06 Length=0.40048 Units=m
New Line.LINE133 Bus1=133 Bus2=134 phases=3 Linecode=5c_.1 Length=3.069 Units=m
New Line.LINE134 Bus1=134 Bus2=135 phases=3 Linecode=2c_.0145 Length=0.38009 Units=m
New Line.LINE135 Bus1=134 Bus2=136 phases=3 Linecode=5c_.1 Length=13.3501 Units=m
New Line.LINE136 Bus1=135 Bus2=137 phases=3 Linecode=2c_.0145 Length=0.17214 Units=m
New Line.LINE137 Bus1=136 Bus2=138 phases=3 Linecode=5c_.04 Length=0.28954 Units=m
New Line.LINE138 Bus1=136 Bus2=139 phases=3 Linecode=5c_.1 Length=1.0184 Units=m
New Line.LINE139 Bus1=137 Bus2=140 phases=3 Linecode=2c_.0145 Length=0.1228 Units=m
New Line.LINE140 Bus1=138 Bus2=141 phases=3 Linecode=5c_.04 Length=0.23424 Units=m
New Line.LINE141 Bus1=139 Bus2=142 phases=3 Linecode=5c_.1 Length=0.23902 Units=m
New Line.LINE142 Bus1=140 Bus2=143 phases=3 Linecode=2c_.0145 Length=0.097417 Units=m
New Line.LINE143 Bus1=141 Bus2=144 phases=3 Linecode=5c_.04 Length=0.35396 Units=m
New Line.LINE144 Bus1=142 Bus2=145 phases=3 Linecode=5c_.1 Length=0.15403 Units=m
New Line.LINE145 Bus1=143 Bus2=146 phases=3 Linecode=2c_.0145 Length=0.10521 Units=m
New Line.LINE146 Bus1=144 Bus2=147 phases=3 Linecode=5c_.04 Length=0.25602 Units=m
New Line.LINE147 Bus1=145 Bus2=148 phases=3 Linecode=5c_.1 Length=0.10402 Units=m
New Line.LINE148 Bus1=146 Bus2=149 phases=3 Linecode=2c_.0145 Length=7.2866 Units=m
New Line.LINE149 Bus1=147 Bus2=150 phases=3 Linecode=5c_.04 Length=0.55258 Units=m
New Line.LINE150 Bus1=148 Bus2=151 phases=3 Linecode=5c_.1 Length=0.1333 Units=m
New Line.LINE151 Bus1=149 Bus2=152 phases=3 Linecode=2c_.0145 Length=6.2443 Units=m
New Line.LINE152 Bus1=150 Bus2=153 phases=3 Linecode=5c_.04 Length=0.5228 Units=m
New Line.LINE153 Bus1=151 Bus2=154 phases=3 Linecode=5c_.1 Length=0.19167 Units=m
New Line.LINE154 Bus1=152 Bus2=155 phases=3 Linecode=2c_.0145 Length=3.8601 Units=m
New Line.LINE155 Bus1=152 Bus2=156 phases=3 Linecode=2c_.0145 Length=0.4327 Units=m
New Line.LINE156 Bus1=153 Bus2=157 phases=3 Linecode=5c_.04 Length=0.24286 Units=m
New Line.LINE157 Bus1=154 Bus2=158 phases=3 Linecode=5c_.1 Length=0.2103 Units=m
New Line.LINE158 Bus1=156 Bus2=159 phases=3 Linecode=2c_.0145 Length=0.069894 Units=m
New Line.LINE159 Bus1=157 Bus2=160 phases=3 Linecode=5c_.04 Length=0.17204 Units=m
New Line.LINE160 Bus1=158 Bus2=161 phases=3 Linecode=5c_.1 Length=0.28006 Units=m
New Line.LINE161 Bus1=159 Bus2=162 phases=3 Linecode=2c_.0145 Length=0.058 Units=m
New Line.LINE162 Bus1=160 Bus2=163 phases=3 Linecode=5c_.04 Length=0.38774 Units=m
New Line.LINE163 Bus1=161 Bus2=164 phases=3 Linecode=5c_.1 Length=0.1063 Units=m
New Line.LINE164 Bus1=162 Bus2=165 phases=3 Linecode=2c_.0145 Length=0.041 Units=m
New Line.LINE165 Bus1=163 Bus2=166 phases=3 Linecode=5c_.04 Length=0.37353 Units=m
New Line.LINE166 Bus1=164 Bus2=167 phases=3 Linecode=5c_.1 Length=0.10791 Units=m
New Line.LINE167 Bus1=165 Bus2=168 phases=3 Linecode=2c_.0145 Length=0.14831 Units=m
New Line.LINE168 Bus1=166 Bus2=169 phases=3 Linecode=5c_.04 Length=0.64039 Units=m
New Line.LINE169 Bus1=167 Bus2=170 phases=3 Linecode=5c_.1 Length=5.6452 Units=m
New Line.LINE170 Bus1=168 Bus2=171 phases=3 Linecode=2c_.0145 Length=4.6564 Units=m
New Line.LINE171 Bus1=169 Bus2=172 phases=3 Linecode=5c_.04 Length=1.6055 Units=m
New Line.LINE172 Bus1=170 Bus2=173 phases=3 Linecode=5c_.1 Length=3.1266 Units=m
New Line.LINE173 Bus1=171 Bus2=174 phases=3 Linecode=2c_.0145 Length=0.12932 Units=m
New Line.LINE174 Bus1=172 Bus2=175 phases=3 Linecode=5c_.04 Length=4.8539 Units=m
New Line.LINE175 Bus1=174 Bus2=176 phases=3 Linecode=2c_.0145 Length=0.09868 Units=m
New Line.LINE176 Bus1=175 Bus2=177 phases=3 Linecode=5c_.04 Length=2.477 Units=m
New Line.LINE177 Bus1=176 Bus2=178 phases=3 Linecode=2c_.0145 Length=0.11727 Units=m
New Line.LINE178 Bus1=177 Bus2=179 phases=3 Linecode=4_XC Length=2.0079 Units=m
New Line.LINE179 Bus1=177 Bus2=180 phases=3 Linecode=5c_.04 Length=0.92265 Units=m
New Line.LINE180 Bus1=178 Bus2=181 phases=3 Linecode=2c_.0145 Length=0.19277 Units=m
New Line.LINE181 Bus1=179 Bus2=182 phases=3 Linecode=4_XC Length=0.18357 Units=m
New Line.LINE182 Bus1=180 Bus2=183 phases=3 Linecode=5c_.04 Length=3.0745 Units=m
New Line.LINE183 Bus1=181 Bus2=184 phases=3 Linecode=2c_.0145 Length=0.15312 Units=m
New Line.LINE184 Bus1=182 Bus2=185 phases=3 Linecode=4_XC Length=0.16926 Units=m
New Line.LINE185 Bus1=183 Bus2=186 phases=3 Linecode=5c_.04 Length=5.8298 Units=m
New Line.LINE186 Bus1=184 Bus2=187 phases=3 Linecode=2c_.0145 Length=5.3411 Units=m
New Line.LINE187 Bus1=185 Bus2=188 phases=3 Linecode=4_XC Length=0.12822 Units=m
New Line.LINE188 Bus1=186 Bus2=189 phases=3 Linecode=5c_.04 Length=3.6272 Units=m
New Line.LINE189 Bus1=188 Bus2=190 phases=3 Linecode=4_XC Length=0.19516 Units=m
New Line.LINE190 Bus1=189 Bus2=191 phases=3 Linecode=5c_.04 Length=0.081249 Units=m
New Line.LINE191 Bus1=189 Bus2=192 phases=3 Linecode=5c_.04 Length=0.44002 Units=m
New Line.LINE192 Bus1=191 Bus2=193 phases=3 Linecode=5c_.04 Length=0.085843 Units=m
New Line.LINE193 Bus1=192 Bus2=194 phases=3 Linecode=5c_.04 Length=5.3325 Units=m
New Line.LINE194 Bus1=193 Bus2=195 phases=3 Linecode=5c_.04 Length=0.086 Units=m
New Line.LINE195 Bus1=194 Bus2=196 phases=3 Linecode=2c_.0145 Length=6.8778 Units=m
New Line.LINE196 Bus1=194 Bus2=197 phases=3 Linecode=5c_.04 Length=5.3315 Units=m
New Line.LINE197 Bus1=195 Bus2=198 phases=3 Linecode=5c_.04 Length=0.086313 Units=m
New Line.LINE198 Bus1=196 Bus2=199 phases=3 Linecode=2c_.0145 Length=5.3558 Units=m
New Line.LINE199 Bus1=196 Bus2=1100 phases=3 Linecode=2c_.0145 Length=0.50818 Units=m
New Line.LINE1100 Bus1=197 Bus2=1101 phases=3 Linecode=5c_.04 Length=5.0837 Units=m
New Line.LINE1101 Bus1=198 Bus2=1102 phases=3 Linecode=5c_.04 Length=0.085704 Units=m
New Line.LINE1102 Bus1=1100 Bus2=1103 phases=3 Linecode=2c_.0145 Length=0.14723 Units=m
New Line.LINE1103 Bus1=1101 Bus2=1104 phases=3 Linecode=4_XC Length=0.067465 Units=m
New Line.LINE1104 Bus1=1101 Bus2=1105 phases=3 Linecode=5c_.04 Length=2.1036 Units=m
New Line.LINE1105 Bus1=1102 Bus2=1106 phases=3 Linecode=5c_.04 Length=0.086354 Units=m
New Line.LINE1106 Bus1=1103 Bus2=1107 phases=3 Linecode=2c_.0145 Length=0.10046 Units=m
New Line.LINE1107 Bus1=1104 Bus2=1108 phases=3 Linecode=4_XC Length=0.067365 Units=m
New Line.LINE1108 Bus1=1105 Bus2=1109 phases=3 Linecode=5c_.04 Length=5.5094 Units=m
New Line.LINE1109 Bus1=1107 Bus2=1110 phases=3 Linecode=2c_.0145 Length=0.080056 Units=m
New Line.LINE1110 Bus1=1108 Bus2=1111 phases=3 Linecode=4_XC Length=0.06619 Units=m
New Line.LINE1111 Bus1=1109 Bus2=1112 phases=3 Linecode=5c_.04 Length=0.24035 Units=m
New Line.LINE1112 Bus1=1110 Bus2=1113 phases=3 Linecode=2c_.0145 Length=0.072561 Units=m
New Line.LINE1113 Bus1=1111 Bus2=1114 phases=3 Linecode=4_XC Length=0.06791 Units=m
New Line.LINE1114 Bus1=1112 Bus2=1115 phases=3 Linecode=5c_.04 Length=1.3626 Units=m
New Line.LINE1115 Bus1=1113 Bus2=1116 phases=3 Linecode=2c_.0145 Length=0.12146 Units=m
New Line.LINE1116 Bus1=1114 Bus2=1117 phases=3 Linecode=4_XC Length=0.066211 Units=m
New Line.LINE1117 Bus1=1116 Bus2=1118 phases=3 Linecode=2c_.0145 Length=4.3578 Units=m
New Line.LINE1118 Bus1=1117 Bus2=1119 phases=3 Linecode=4_XC Length=0.067425 Units=m
New Line.LINE1119 Bus1=1118 Bus2=1120 phases=3 Linecode=2c_.0145 Length=0.1419 Units=m
New Line.LINE1120 Bus1=1119 Bus2=1121 phases=3 Linecode=4_XC Length=0.067178 Units=m
New Line.LINE1121 Bus1=1120 Bus2=1122 phases=3 Linecode=2c_.0145 Length=0.15284 Units=m
New Line.LINE1122 Bus1=1121 Bus2=1123 phases=3 Linecode=4_XC Length=0.066852 Units=m
New Line.LINE1123 Bus1=1122 Bus2=1124 phases=3 Linecode=2c_.0145 Length=0.132 Units=m
New Line.LINE1124 Bus1=1123 Bus2=1125 phases=3 Linecode=4_XC Length=0.067623 Units=m
New Line.LINE1125 Bus1=1124 Bus2=1126 phases=3 Linecode=2c_.0145 Length=0.17612 Units=m
New Line.LINE1126 Bus1=1125 Bus2=1127 phases=3 Linecode=4_XC Length=0.06694 Units=m
New Line.LINE1127 Bus1=1126 Bus2=1128 phases=3 Linecode=2c_.0145 Length=0.22769 Units=m
New Line.LINE1128 Bus1=1128 Bus2=1129 phases=3 Linecode=2c_.0145 Length=0.28679 Units=m
New Line.LINE1129 Bus1=1129 Bus2=1130 phases=3 Linecode=2c_.0145 Length=4.835 Units=m
New Line.LINE21 Bus1=11 Bus2=22 phases=3 Linecode=5c_.1 Length=0.13724 Units=m
New Line.LINE22 Bus1=22 Bus2=23 phases=3 Linecode=5c_.1 Length=0.051866 Units=m
New Line.LINE23 Bus1=23 Bus2=24 phases=3 Linecode=5c_.1 Length=0.038012 Units=m
New Line.LINE24 Bus1=24 Bus2=25 phases=3 Linecode=5c_.1 Length=0.044554 Units=m
New Line.LINE25 Bus1=25 Bus2=26 phases=3 Linecode=5c_.1 Length=0.045607 Units=m
New Line.LINE26 Bus1=26 Bus2=27 phases=3 Linecode=5c_.1 Length=0.06174 Units=m
New Line.LINE27 Bus1=27 Bus2=28 phases=3 Linecode=5c_.1 Length=0.048836 Units=m
New Line.LINE28 Bus1=28 Bus2=29 phases=3 Linecode=5c_.1 Length=0.037122 Units=m
New Line.LINE29 Bus1=29 Bus2=210 phases=3 Linecode=5c_.1 Length=0.056886 Units=m
New Line.LINE210 Bus1=210 Bus2=211 phases=3 Linecode=5c_.1 Length=2.8399 Units=m
New Line.LINE211 Bus1=211 Bus2=212 phases=3 Linecode=5c_.1 Length=0.063976 Units=m
New Line.LINE212 Bus1=212 Bus2=213 phases=3 Linecode=5c_.1 Length=0.043863 Units=m
New Line.LINE213 Bus1=213 Bus2=214 phases=3 Linecode=5c_.1 Length=0.05801 Units=m
New Line.LINE214 Bus1=214 Bus2=215 phases=3 Linecode=5c_.1 Length=0.051662 Units=m
New Line.LINE215 Bus1=215 Bus2=216 phases=3 Linecode=5c_.1 Length=0.087618 Units=m
New Line.LINE216 Bus1=216 Bus2=217 phases=3 Linecode=5c_.1 Length=0.40052 Units=m
New Line.LINE217 Bus1=217 Bus2=218 phases=3 Linecode=5c_.1 Length=0.055606 Units=m
New Line.LINE218 Bus1=218 Bus2=219 phases=3 Linecode=5c_.1 Length=0.062937 Units=m
New Line.LINE219 Bus1=219 Bus2=220 phases=3 Linecode=5c_.1 Length=0.064661 Units=m
New Line.LINE220 Bus1=220 Bus2=221 phases=3 Linecode=5c_.1 Length=0.063134 Units=m
New Line.LINE221 Bus1=221 Bus2=222 phases=3 Linecode=5c_.1 Length=0.062651 Units=m
New Line.LINE222 Bus1=222 Bus2=223 phases=3 Linecode=5c_.1 Length=2.6007 Units=m
New Line.LINE223 Bus1=223 Bus2=224 phases=3 Linecode=5c_.1 Length=2.285 Units=m
New Line.LINE224 Bus1=224 Bus2=225 phases=3 Linecode=5c_.1 Length=0.5019 Units=m
New Line.LINE225 Bus1=225 Bus2=226 phases=3 Linecode=5c_.1 Length=0.14425 Units=m
New Line.LINE226 Bus1=226 Bus2=227 phases=3 Linecode=5c_.1 Length=0.15513 Units=m
New Line.LINE227 Bus1=227 Bus2=228 phases=3 Linecode=5c_.1 Length=0.12587 Units=m
New Line.LINE228 Bus1=228 Bus2=229 phases=3 Linecode=5c_.1 Length=0.14785 Units=m
New Line.LINE229 Bus1=229 Bus2=230 phases=3 Linecode=5c_.1 Length=0.25372 Units=m
New Line.LINE230 Bus1=230 Bus2=231 phases=3 Linecode=5c_.1 Length=0.19625 Units=m
New Line.LINE231 Bus1=231 Bus2=232 phases=3 Linecode=5c_.1 Length=0.18697 Units=m
New Line.LINE232 Bus1=232 Bus2=233 phases=3 Linecode=5c_.06 Length=2.595 Units=m
New Line.LINE233 Bus1=233 Bus2=234 phases=3 Linecode=5c_.06 Length=0.65697 Units=m
New Line.LINE234 Bus1=233 Bus2=235 phases=3 Linecode=5c_.06 Length=2.608 Units=m
New Line.LINE235 Bus1=234 Bus2=236 phases=3 Linecode=5c_.06 Length=0.18303 Units=m
New Line.LINE236 Bus1=235 Bus2=237 phases=3 Linecode=5c_.06 Length=0.307 Units=m
New Line.LINE237 Bus1=235 Bus2=238 phases=3 Linecode=5c_.06 Length=2.5008 Units=m
New Line.LINE238 Bus1=236 Bus2=239 phases=3 Linecode=5c_.06 Length=0.14534 Units=m
New Line.LINE239 Bus1=237 Bus2=240 phases=3 Linecode=5c_.06 Length=0.069871 Units=m
New Line.LINE240 Bus1=238 Bus2=241 phases=3 Linecode=2c_.0225 Length=6.5712 Units=m
New Line.LINE241 Bus1=238 Bus2=242 phases=3 Linecode=5c_.06 Length=5.1316 Units=m
New Line.LINE242 Bus1=239 Bus2=243 phases=3 Linecode=5c_.06 Length=0.11332 Units=m
New Line.LINE243 Bus1=240 Bus2=244 phases=3 Linecode=5c_.06 Length=0.080007 Units=m
New Line.LINE244 Bus1=241 Bus2=245 phases=3 Linecode=2c_.0225 Length=6.8271 Units=m
New Line.LINE245 Bus1=242 Bus2=246 phases=3 Linecode=5c_.06 Length=0.87232 Units=m
New Line.LINE246 Bus1=243 Bus2=247 phases=3 Linecode=5c_.06 Length=0.11273 Units=m
New Line.LINE247 Bus1=244 Bus2=248 phases=3 Linecode=5c_.06 Length=0.073926 Units=m
New Line.LINE248 Bus1=246 Bus2=249 phases=3 Linecode=5c_.06 Length=8.0496 Units=m
New Line.LINE249 Bus1=247 Bus2=250 phases=3 Linecode=5c_.06 Length=0.13557 Units=m
New Line.LINE250 Bus1=248 Bus2=251 phases=3 Linecode=5c_.06 Length=0.1494 Units=m
New Line.LINE251 Bus1=249 Bus2=252 phases=3 Linecode=2c_.0225 Length=6.7057 Units=m
New Line.LINE252 Bus1=249 Bus2=253 phases=3 Linecode=5c_.06 Length=1.0862 Units=m
New Line.LINE253 Bus1=250 Bus2=254 phases=3 Linecode=5c_.06 Length=0.21869 Units=m
New Line.LINE254 Bus1=251 Bus2=255 phases=3 Linecode=5c_.06 Length=0.145 Units=m
New Line.LINE255 Bus1=252 Bus2=256 phases=3 Linecode=2c_.0225 Length=5.5592 Units=m
New Line.LINE256 Bus1=252 Bus2=257 phases=3 Linecode=2c_.0225 Length=5.5592 Units=m
New Line.LINE257 Bus1=253 Bus2=258 phases=3 Linecode=5c_.06 Length=0.44046 Units=m
New Line.LINE258 Bus1=253 Bus2=259 phases=3 Linecode=5c_.06 Length=10.4779 Units=m
New Line.LINE259 Bus1=254 Bus2=260 phases=3 Linecode=5c_.06 Length=0.16955 Units=m
New Line.LINE260 Bus1=255 Bus2=261 phases=3 Linecode=5c_.06 Length=0.12594 Units=m
New Line.LINE261 Bus1=258 Bus2=262 phases=3 Linecode=5c_.06 Length=0.35113 Units=m
New Line.LINE262 Bus1=259 Bus2=263 phases=3 Linecode=5c_.06 Length=2.1089 Units=m
New Line.LINE263 Bus1=260 Bus2=264 phases=3 Linecode=5c_.06 Length=0.24003 Units=m
New Line.LINE264 Bus1=261 Bus2=265 phases=3 Linecode=5c_.06 Length=0.12521 Units=m
New Line.LINE265 Bus1=262 Bus2=266 phases=3 Linecode=5c_.06 Length=0.12882 Units=m
New Line.LINE266 Bus1=263 Bus2=267 phases=3 Linecode=5c_.06 Length=0.22714 Units=m
New Line.LINE267 Bus1=263 Bus2=268 phases=3 Linecode=4c_.0145 Length=8.2989 Units=m
New Line.LINE268 Bus1=264 Bus2=269 phases=3 Linecode=5c_.06 Length=0.2062 Units=m
New Line.LINE269 Bus1=265 Bus2=270 phases=3 Linecode=5c_.06 Length=0.057983 Units=m
New Line.LINE270 Bus1=266 Bus2=271 phases=3 Linecode=5c_.06 Length=0.19231 Units=m
New Line.LINE271 Bus1=267 Bus2=272 phases=3 Linecode=5c_.06 Length=0.189 Units=m
...
